Metadata-Version: 1.1
Name: xmipy
Version: 0.1.0
Summary: xmipy is an extension to the bmipy Python package .
Home-page: https://github.com/Deltares/xmipy.git
Author: Martijn Russcher, Julian Hofer, Joseph D. Hughes
Author-email: UNKNOWN
License: CC0
Description: xmipy is an extension to the bmipy Python package for MODFLOW 6 and other codes.
Platform: Windows
Platform: Mac OS-X
Platform: Linux
Classifier: Topic :: Scientific/Engineering :: Hydrology
